Circuit: * Z:\home\christoph\git\electronics-design-data\components\simulation\CM_choke_S21.asc

WARNING: Node NC_01 is floating.
WARNING: Node U1:1:N21731 is floating.

WARNING: Less than two connections to node NC_01.  This node is used by R:U1:1:_R1.
WARNING: Less than two connections to node NC_02.  This node is used by R:U1:1:_R6.

Date: Wed May 27 18:51:43 2026
Total elapsed time: 0.296 seconds.

tnom = 27
temp = 27
method = trap
totiter = 0
traniter = 0
tranpoints = 0
accept = 0
rejected = 0
matrix size = 62
fillins = 152
solver = Alternate

