Circuit: * Z:\home\christoph\git\electronics-design-data\components\simulation\ETH_trafo_S21.asc

WARNING: Less than two connections to node NC_01.  This node is used by R:U1:143.
WARNING: Less than two connections to node NC_02.  This node is used by R:U1:144.

Date: Thu May 28 21:08:36 2026
Total elapsed time: 0.174 seconds.

tnom = 27
temp = 27
method = trap
totiter = 0
traniter = 0
tranpoints = 0
accept = 0
rejected = 0
matrix size = 18
fillins = 16
solver = Alternate

