LTspice 26.0.2 for Windows
Circuit: C:\users\christoph\Documents\git\electronics-design-data\components\simulation\CM_choke\CM_choke_S21.net
Start Time: Wed Jun 17 21:49:12 2026
C:\users\christoph\Documents\git\electronics-design-data\components\simulation\CM_choke\CM_choke_S21.net(5): This pin name equals one of the port names of the sub-circuit, but at a different position. This is not a problem, but note that as a result none of the pin names may be used by any .meas expressions.
X§L1 N002 N001 0 0 1812_744235510_3000ohm ;§pnba 4)1)3)2
                                                 ^
solver = Alternate
Maximum thread count: 8
tnom = 27
temp = 27
method = modified trap
Direct Newton iteration succeeded in finding operating point.
Total elapsed time: 0.146 seconds.

Files loaded:
C:\users\christoph\Documents\git\electronics-design-data\components\simulation\CM_choke\CM_choke_S21.net
C:\users\christoph\AppData\Local\LTspice\lib\sub\Contrib\Wurth\WE-CNSW.lib

