LTspice 26.0.2 for Windows
Circuit: C:\users\christoph\Documents\git\electronics-design-data\components\simulation\ETH_Trafo\ETH_trafo_S21.net
Start Time: Wed Jun 17 17:54:55 2026
solver = Alternate
Maximum thread count: 8
tnom = 27
temp = 27
method = modified trap
Direct Newton iteration succeeded in finding operating point.
Total elapsed time: 0.050 seconds.

Files loaded:
C:\users\christoph\Documents\git\electronics-design-data\components\simulation\ETH_Trafo\ETH_trafo_S21.net
C:\users\christoph\Documents\git\electronics-design-data\ECAD\ltspice\models\alt4532m_201_t001_s.mod.cir

