* LTspice Encrypted File
* 
* This encrypted file has been supplied by a 3rd
* party vendor that does not wish to publicize
* the technology used to implement this library.
* 
* Permission is granted to use this file for
* simulations but not to reverse engineer its
* contents.
* 
**************************************************************************
*  (C)  Copyright  Toshiba Electronic Devices & Storage Corporation  2019
*  Date                 :Mar. 06 2018 (Aug. 08 2018)
*  File name            :TLP293.mod
*  Part number          :TLP293		(Ic/IF(CTR) : about 175%)
*  Parameter ver.       :Ver.1.2
*  Simulator            :LTspice
*  Model call name      :TLP293
*  TNOM                 :25 degree
*  Pin Assign           :1=Anode 2=Cathode 3=Emitter 4=Collector
* 
* Operation of this model has been verified only on the LTspice.
**************************************************************************
*
* Begin:
 22 28 77 93 12 11 6F 69 A8 76 FC 86 9B 30 E6 BE
 52 86 47 14 5A E1 5B 7D 79 D4 A7 61 B4 DD 91 AA
 98 0C 7E 10 A9 58 11 68 E4 4C B2 17 AF 83 9C B0
 32 DC E0 B1 A6 4D A6 32 7C DC D8 96 4A 29 40 55
 AB FE 22 85 F3 86 DA C2 5A 43 A5 1F 4F E3 FE 11
 21 46 CE 8C 69 94 C5 8C C0 B8 AF F6 D0 B3 F8 98
 B0 67 3C 40 96 CD 5B BC 84 60 BD 8F 10 9A 20 63
 90 1B 9A 4F E0 9B 5A 2D 4D 85 BD 9E 25 49 9C 98
 60 34 A9 C9 31 C6 55 AB 0A BA E0 32 AE 37 F4 BF
 BE 2D 50 25 BD 78 AB 1A 27 AF 3E 54 AF 2C 3A BB
 1C 20 31 3B E7 5F 6F 78 0A FB 47 0A AA DB B1 E3
 05 FA 36 27 42 E5 ED 6A 5F 3C 9E D7 5B 0E F4 BF
 8F 58 54 06 19 B4 7B 03 CA 17 E4 D3 AA 9D E2 FE
 A4 20 9D 07 B4 CD 3A 4F 34 A3 43 F5 54 09 B4 AB
 A9 D0 72 03 80 03 A6 30 66 81 71 21 72 4C 05 93
 E4 2C A8 30 34 E2 73 24 40 24 58 E4 F9 74 E2 D7
 2D A5 9B 07 7D 42 E6 BC B7 3B 48 15 EF 7E 44 D2
 1E 61 37 FA AD A3 65 41 3A AE 2E 82 A2 A9 59 07
 79 4E 76 13 A1 05 5F 50 06 C8 CF 3E 59 3F 89 5A
 92 C6 7E F1 03 53 38 BD F8 4A 08 44 21 7D A0 4F
 E7 6A 2E 89 40 3A F4 5E AF 5E 63 5A 79 3F 3D 25
 C6 93 BC 8E 3E C9 28 B7 57 AC 1F 1E 16 28 E4 6B
 3C 62 63 8E AA 99 95 23 2D 32 98 02 CC BF F2 A0
 31 5A B0 83 5D 08 4C 1A AB 2A 5F CD 4B 74 E8 51
 48 35 0B 41 69 90 B1 C8 DF 08 BF 7E ED 19 30 D4
 02 25 68 D2 EA 71 CB 25 AF D8 7C 32 77 7D 2C CB
 68 09 2F A1 1D 13 F6 6C D4 AE 33 E0 72 32 CD AE
 D4 F6 6C CC 92 AF 5C 2F F6 AB 14 C3 C3 FC E6 B4
 A0 B3 A8 CE 30 94 F6 89 C2 9D 2D EF CE E9 86 21
 C3 45 EB 28 E2 BB AA D5 85 69 73 20 1F 07 0E 8C
 54 69 EA 70 A7 98 9D B2 A7 AD D5 C6 12 06 F4 B3
 00 B5 79 E4 98 CB 71 2A AE F9 6C 4F 16 BF C7 89
 45 7E 18 CD 93 E8 C4 98 0C EE 30 7E 0A F7 52 26
 5E 04 07 02 05 2E AB 54 0B 29 48 B0 C4 26 0C 44
 76 42 C4 88 5A E1 69 DA E1 09 94 D2 59 EE 2C 8F
 96 D9 05 DC 3E FE 1E 23 9B C7 5F 3B 45 45 4F C1
 FE FD 00 29 AF 02 DD E0 CF 8C 1F 1D FF 16 47 FE
 A4 4B CE A2 73 09 69 09 EC F0 43 BC 63 F7 3F BF
 8C ED AF 7C 47 CC 50 8C B4 18 CE 0E DB 13 67 4A
 92 3C 7C 04 6C A0 9F 18 AF 8C D9 75 D5 1E C3 2D
 C0 1D 7C 9D 2A 02 B6 02 8A 51 49 6B B5 3D E3 DC
 A5 38 6F BB 0F 56 2E BE DE D0 4E 47 66 C4 68 F1
 A8 5C B8 4D 08 1F E4 29 40 AB 41 81 F0 4D C7 B9
 A3 E4 DA 3C 71 94 B8 65 A6 5D D9 55 7D 48 7C 41
 87 CD 0E 49 55 B8 F1 6A 74 D5 62 37 AC D2 F6 4A
 87 D9 02 EA 07 CA DC 51 0E 63 90 8C F8 A3 AD 07
 7F E4 2B 47 46 9A EC 9F 42 BD 1A 66 05 24 80 0B
 5F AF 86 56 32 2C C4 CE F2 31 92 F1 07 98 00 7D
 D6 FB 84 DA 21 88 91 66 9A 1C 86 8E 62 38 33 CF
 36 EC AF D4 7D 58 88 E3 FD 3C 05 A0 E3 5D 99 3A
 22 AB 7A 8E 78 FA 2A 3E 56 30 3D CA 7C 97 62 00
 15 30 67 C5 E8 69 3A CB 03 0D 03 0A D0 B4 81 94
 6B 96 98 C3 F4 AE FA 8B DE 0B D5 0F F7 67 E9 E9
 4B 80 47 C8 67 25 D0 C7 46 9D 09 C5 12 6F 8A 0C
 DE 21 15 A3 05 BD F1 85 BC 38 9D 58 02 21 01 CF
 21 62 8C 62 CB F8 C6 3F 19 5F 4F 59 93 66 EB 7E
 E9 96 A2 33 35 50 9C 6E C2 71 D6 CE 6B B4 BC B7
 0B FE 27 94 4C E6 C0 66 85 15 F8 A5 5E FB A8 7C
 7B 44 60 64 9B 29 B5 0E B7 BD A9 43 E4 87 30 32
 66 45 66 12 FC 74 EC EC 40 70 35 1F 80 19 6C 8C
 F7 40 5C AB 56 C5 43 8D EF 20 D5 EE 44 1C 6D A3
 A5 EF FE 16 BE EB A2 51 03 02 E5 86 41 2C 57 B4
 1D BB 84 71 58 EF 65 D4 AB AA 04 90 4D 5F 6B 6D
 6A 9B 88 66 92 8D 15 CF 05 DC 0D B8 79 AD 18 12
 96 18 D9 0E 48 FC 9D 31 2B 9D 2B 1F 49 C5 4C 47
 AB 9B 8D 98 28 62 05 8B D3 B3 AE F9 4A 2D 99 ED
 96 DA E5 49 9C 85 F3 3D 72 E6 41 C8 4A BF 40 A5
 F1 D3 4C 22 2B B7 FC F2 E8 EC 42 98 A1 98 41 20
 A2 38 30 3E ED 87 A6 E6 FA 4C 94 85 D3 52 EE 2A
 C5 D1 09 A5 5F 0A B6 BD 05 A0 66 89 C8 29 61 98
 3B 8A BB 68 08 57 DD 3E 26 FE BD AA 1B 94 A4 1C
 58 6C 32 71 96 3A D9 40 9C FC BF D3 27 A2 D4 62
 37 85 30 28 92 49 67 7B 9A 3C 88 4D 09 4F 6C CC
 57 D3 F1 D2 65 DA 1A 36 B9 31 46 07 F3 20 F5 3F
 80 58 58 21 70 0A 97 AC D9 36 A7 F9 9F 42 86 BE
 0C E4 86 9D 04 D4 6D 5C 4C A3 66 84 81 E2 56 FE
 B7 6F 29 CC 6E B1 4A 58 52 DC 39 CB 45 59 5A D5
 D4 A9 57 09 28 2A BA 48 EC C0 32 1D EF C9 13 43
 4B 80 19 86 B6 F3 B1 45 4A 50 F0 C2 20 B8 52 73
 2A F8 25 CA 3D 42 83 0C 42 02 FD D6 CE 61 65 0D
 3C 98 8A CC EA 62 C9 C1 28 BF F8 CF A3 E4 B7 FD
 F9 B3 A8 54 98 8F A3 AA D0 6B E5 3C F4 58 8B 1B
 F2 C9 DC 9A B6 CE 3C 35 30 3A CE 6C E4 9E 4A CD
 BA 25 8A 9A 8B 0E 18 36 CE 06 61 54 73 9F 59 30
 51 A7 3F F1 12 B1 86 89 9D BC 24 3E 0A 5E FF 9A
 07 E6 A3 EA EC 6B FC 86 4A FA 20 5D 96 82 B6 82
 2A 98 08 65 04 3D 8D 54 82 1A 8F C1 23 60 BC 5A
 9A E5 3B 40 A7 95 B2 8D 4F CB 57 69 E0 BC 35 9C
 06 91 6E AB 43 88 A5 04 C5 F6 43 52 07 C3 B7 A9
 1A 74 EF 16 25 F8 45 5A D1 D0 AA 01 86 7A 35 07
 23 6A 3F 56 FE E9 15 91 EF 6F 5A 75 6F D1 D8 23
 74 F7 AB CF F7 CB EE DD B1 81 F3 64 AC 9F 1F 40
 A6 C5 E4 A6 17 A0 92 EF 8C 5D 7A 9F CD 26 88 E8
 D3 6A CB 4B 9A 3C 84 56 D7 42 FF 64 5B 73 8B 51
 70 E6 F0 24 FD 3B 69 D9 27 02 38 2A 32 CD 4B F6
 35 EC C4 15 C4 EB A4 40 4E 81 F6 7D D1 18 3E 25
 FF B2 8E E5 5A 45 85 43 A1 11 7C 2D 2F 95 FE 43
 DC 6A 76 40 FB 8E 47 9C AE 71 66 2A 15 0D 7A BD
 48 1B C7 8D 98 5A 14 6B C3 0B 39 28 F6 E6 9A 41
 59 00 59 D4 E5 76 5B 4B 5E 38 90 FC 51 5A 4E A8
 5C B0 D3 1B 90 35 F2 66 06 DC 76 89 61 41 7D E2
 B3 F8 2B 10 26 27 AC 53 15 52 1A 1A 0E 8B 6C 5E
 52 3E 03 62 28 34 BA D7 CC B8 D0 1D 4E EA AE 8F
 D2 A8 34 2A E8 AE AA AC BC B3 72 62 E7 72 5B 4A
 AB 37 8D 7A BE 09 A5 4E F1 A5 1C FC B2 3E 7F F7
 7D A7 E2 1B 33 D3 23 35 22 41 97 E3 55 61 BA 85
 BC 82 D0 F5 2E 17 35 4B D6 CA 8A CC CE 81 A0 50
 E5 AA 46 26 04 72 4A 62 D0 20 79 9D B3 08 D3 09
 BA EF 62 EC 62 2C F7 82 FA BB 00 6E 2D 54 CA F4
 C8 41 6F 6D 97 C6 02 29 5B 23 1F 0C 02 D1 28 4E
 97 35 80 58 95 82 F5 98 E9 81 3D EC E1 DA 39 21
 99 29 6C 75 BB 3C 12 F7 31 95 BB 27 B5 2F 12 6C
 F6 9A 4A 48 87 A6 F2 9D 94 A6 CB E9 99 6F 9A C5
 5D C5 FB 09 60 4E 82 63 31 B8 1A 16 D3 54 34 1E
 2D BC 6B 33 A9 C3 80 26 BA B6 B2 9F 17 18 C7 74
 0C C5 74 6A 29 D8 07 49 04 54 CB 28 F7 9F C4 5A
 4D 1C 79 00 D5 98 A4 BD 85 F1 93 CD 0B 3D D9 B4
 18 60 43 BB EB 04 A1 5D 86 BC 08 06 6A 9C 5E B5
 B4 AB 2F F9 45 26 C4 B6 03 C0 1C 0D 98 F6 C1 A3
 64 09 F1 6D 29 1E FA F6 87 29 6D 47 3E B3 D6 9A
 DB CD 4E 86 DF 93 A8 30 7F F2 5B D5 E9 5B 85 18
 2F 17 E6 31 C2 DD 05 A8 55 36 50 D6 35 80 7E A4
 91 95 62 95 61 4B EB 65 15 1B 7B FC 0C F3 CD F1
 2A DB A7 0A 14 3D BA A4 A2 FD EC 56 1E 4A D2 CD
 0D D2 99 77 9E 94 20 CE 21 08 CB 47 DF 6D 2F 4D
 B0 11 EA 8E 76 2D EA 20 35 A3 B6 F8 AF 05 0A 11
 F1 20 4D 8E 4D BD 3D B9 20 18 AF 76 23 1F E6 0F
 50 A3 72 95 28 B1 AA 67 8E 27 62 F1 06 2A DB 44
 CD A2 FA 15 46 56 A7 77 DC E3 D8 1C EC E2 16 9E
 A6 65 53 8A 94 DB F9 D2 6F 1C 5E 20 D2 35 FB F1
 93 F7 FF 49 9C 05 3C 61 A2 76 86 65 04 6C 02 4A
 1C 34 B9 9D 9B C2 A8 29 C2 0C DF 1D AE A9 97 30
 2E 9E 73 AA FD 8F C8 27 AC 22 D6 02 BB 89 13 09
 87 00 78 54 A5 8B 89 15 A8 59 3D 8A BF 9D 70 6C
 ED 9A F8 51 41 86 EC 0D F2 F6 FE 1C C7 72 49 D0
 A4 CD 65 8F CA CF 09 50 57 EA 67 36 5C 34 43 06
 15 FC 30 D1 27 79 8E E7 6D 60 19 4A E0 8E 90 DE
 18 3B 4B 3C 15 2F EE B8 D9 1E 13 A3 1F E7 03 1C
 53 DB 95 C4 A5 F2 D5 BB 83 5E B0 0C 29 C4 FF 2F
 3B 2E 42 44 17 CC A9 AA 8F D0 25 43 E9 96 2F C1
 E9 80 D8 AE 8B 27 30 C5 37 C6 0D 95 F3 35 0F 57
 E1 67 82 31 2E 33 72 09 8C E5 28 97 07 9F B7 99
 ED 1E A8 0E 14 B9 0C 6E 7B A0 9C 89 24 7A 2A F8
 DC 1D 6B 91 AF AA 0B 82 34 BF 3A C6 D2 54 43 D9
 B5 CE 10 1A 29 2A A3 39 70 40 26 2A 64 7C 54 CB
 B1 A3 0D 02 D7 10 AB AE 4A 50 F4 BC 9E 40 D0 CF
 E1 EB BC 03 9D DD E5 51 F2 EA E6 18 97 6F 8A D1
 AE 40 95 A9 3A 5D 8D AF 38 D3 7C D5 67 D9 2E 71
 3A B8 33 81 E3 23 01 AC 88 D4 1E 71 C7 0F D6 23
 96 2C AD 0C 18 52 0A 47 3D C3 84 2B 62 EB 2B 86
 F2 E4 B9 C3 F5 84 FC F6 24 B3 6C BE 72 0B 85 FC
 B1 C1 6B 00 41 26 08 49 A1 49 B4 6E 71 93 CA 16
 1E C0 8A B0 1A F3 94 82 54 55 D8 31 C9 A8 05 FC
 7C 9A 1B 3E BC C7 ED 1A F4 F1 77 4F CE AD 4C 7F
 3C 43 9B 2E 47 5E 9A 05 B2 D3 DF E1 DF E2 BA 54
 7F C7 7E 8E 99 92 FA 7A 8B A2 41 47 A7 57 91 3C
 3F 36 C9 1C 37 76 3D 21 FE 18 BF 97 32 B5 48 7C
 B4 85 D6 FF 06 BC 8A E6 5C 0F 33 E5 A0 76 2B 99
 02 6A 31 48 6D 63 2F E1 C7 BC BA 09 7D 07 0F 77
 91 BB 3D DA 78 75 89 AD 4B 47 FD 8F 57 82 78 F8
 34 29 72 28 EF 19 77 18 EA 28 4E 90 6B 7D 89 1E
 7A 78 42 A4 BC C3 24 2B 53 49 6D 3E 11 29 B2 92
 F4 69 B1 AB F4 22 62 5C 38 09 A7 65 9B DF 63 03
 66 C5 71 18 09 78 25 5F 5A B3 F6 C6 22 16 10 B6
 33 07 AC FF 75 1F E7 69 C6 0B 1D BE 65 69 DC C7
 4A 81 46 4E 1E C1 E8 41 8F 14 43 94 81 15 E7 47
 1E F2 AD 63 D2 2E 9C C9 C2 10 A6 98 75 E1 1A BA
 98 C3 79 A6 4C 62 0E 58 66 52 F4 DE 51 5D A1 F2
 AE 27 2C B8 AC 52 83 A5 6A 5D B3 BE 9B 0F C2 52
 D9 D3 DB 9D 37 AA 5C EF 97 C6 B5 2B 6E AD 8F 49
 C3 F7 D5 25 89 C7 1B DE 13 EF 5C 95 9F 95 0E D4
 2F 01 F9 79 1E AC CB 34 D4 45 CE 4C 40 38 C3 A0
 68 62 7E 88 88 18 47 07 EA CA BE 40 1E 8E AA 3B
 0A 2A 89 29 37 65 5A AE D9 8B 38 83 EF AD 74 4D
 3A 12 6D 3D 93 4A 58 B5 58 FB E5 32 6D 2B 65 62
 1B 80 09 22 2A 5E 4A B8 3E 45 77 3D F5 46 DB 53
 A8 8F 48 1E 97 A5 EF C6 D4 44 7A 07 F0 79 F2 E2
 89 07 16 6C AD AF 2A D0 51 2D 6A 13 DA 5A 45 53
 C1 73 7C 4E C7 47 2D A8 87 6A FA 69 B7 DD 69 B4
 AC C8 7E 69 97 79 3B 04 E7 82 85 E1 1B 12 0F 1C
 C6 63 AA C7 B0 62 B5 95 02 AA 0A 0D 47 F9 9D 01
 AC 07 80 E3 6A 6A A1 A8 DA DD CB 44 6F 48 44 49
 A9 41 E3 10 3D A4 66 A0 05 52 F2 46 07 2C 84 6A
 6D 5B 80 E2 9A 49 CB F0 F2 EF 3D FB 6D 60 CB 8B
 61 1C CE D8 E3 6F 60 4C D6 F8 B2 AD 6E C1 D7 56
 D3 42 4C 57 60 FB 56 F7 84 3A 7B F2 10 33 65 AF
 6C A0 BC 54 A9 B6 97 81 9F B7 F1 E4 7E F9 B5 12
 AD F5 1C 75 49 0F 5C B3 38 86 94 54 31 A6 4D DF
 18 3C F8 78 1D 1F 15 5D F8 0F 55 06 B7 C1 78 9A
 F8 9D BD 89 13 D2 2F 14 5D 93 BC A4 18 6D 5B 00
 B6 84 56 4D 50 94 6C A6 97 0B 08 6F 61 C1 4F D9
 3B EC E5 A1 5B 20 37 EA 4F 9F 6D D0 56 40 87 B8
 DE 6D 28 AC 63 F3 9B 0E C1 D4 54 2D E7 D3 80 1E
 30 B2 A8 5E 64 B9 8C 77 D8 C1 FA 85 C4 F2 6C 2D
 14 EC 16 9D 19 C4 4F B1 78 EF FD E4 8E 5E EF 66
 A0 4A 7B EA 5C 7A FF 76 63 13 27 19 86 A3 68 40
 12 D1 7E 4B E5 B8 66 E9 64 CE 38 E8 F9 11 C5 8D
 47 06 54 2F 96 D0 AD 7D 99 69 38 32 12 A5 60 BD
 C7 CA D4 32 6F 02 76 D0 38 38 A2 89 27 DE CB 61
 03 C5 A9 07 4E 4F E4 CB 91 C1 D0 7F 29 02 22 45
 78 F5 88 57 D4 FA AD A8 0F 8D C3 1F A1 3A 44 DA
 A7 0D 95 AA E8 70 13 F7 BE F6 C0 12 44 FC EF 38
 4A B0 19 60 5B 4C 86 79 05 47 64 33 CD E2 5B 52
 97 51 8E 71 78 E3 15 6B D0 E7 CD 05 A0 5E E7 2E
 71 B8 FF 0B 9D B4 9E 0C 9F 3A B1 04 15 13 3D 21
 08 A0 DC 06 9C 3C F7 97 72 81 D6 C4 EA 05 3B FC
 6C 32 CA 99 67 C0 E4 97 1F AF CF 43 21 5F F8 48
 95 10 A1 69 8F 6D 32 21 6D EC A8 53 F7 41 A1 84
 9C 5B BB 0F 49 00 A4 B3 40 CA A9 16 A4 4E 06 7E
 AE 70 6A 3B A6 E7 AA ED 3D F6 09 0F 0F 67 5F 8B
 64 51 EB EC 3A AF 3D 80 BF EC 97 72 B2 9F F1 E7
 4C 49 16 05 C8 F1 72 CD 33 C2 BE EB 79 21 F7 41
 BD 05 70 B7 DE 62 14 C6 9F 3D 0F FF 2A 4F C8 3C
 65 92 8D 62 B7 CA AD F3 43 0E 09 C8 D8 B2 4B C4
 16 47 FB 6B DC FE 1C B4 CC 08 A9 33 8C 44 56 B8
 CD 69 31 90 3B 71 54 43 05 00 12 A8 62 19 A7 32
 F4 A1 BE AF F4 C3 D6 27 EA 98 A7 32 E3 CF 44 81
 73 3B 35 FE AB 2B F1 F7 A1 38 9C 70 5F 03 D0 91
 D8 E8 0F 0B E6 00 B2 9D F0 C1 20 28 2A 82 1A BC
 EA C2 AA 58 7D 9C 4E 93 8D EC A7 2B 75 92 1A 4A
 E8 80 00 54 CB 07 C9 E3 81 D8 0B AF DD E3 2D 3A
 B1 EB FF 08 C9 7B 72 7D 23 0D CF 03 BC 1E 93 2F
 BC 4C 61 16 D0 07 F5 9A EB B3 13 F6 D9 4F ED A2
 1A 19 A5 14 75 76 5F 73 C4 20 C4 E7 84 5A B0 15
 24 7B 6F 67 30 6D 67 1D A3 5A 8A 11 02 26 71 64
 DF 85 0C AD 08 D8 86 EB 44 DB 73 98 5F A5 8C 73
 1A 45 23 AE FB 84 1A E4 2F 98 C2 89 4E AF C0 BE
 2F 5D 47 5E 45 21 4E 80 07 5B 61 EC E7 CF FD 0E
 3B 52 E8 27 E5 A9 DF 5A 3E AC C5 25 24 5F 7A 92
 22 FB 58 AC 27 43 0E C1 00 C0 C0 64 01 5C 7E A1
 33 4F 25 C6 55 82 F8 25 FD C0 DA 5E 99 1C 0D B9
 E2 DD 03 D5 6D 20 57 F4 1D 81 31 05 C7 3E 32 FF
 F5 9C C3 3B 60 75 40 82 E8 D4 C0 F8 34 1C 31 79
 E4 D6 9E 4A F5 B4 DD 6B DF 5C DE 41 2A 98 DE A4
 28 48 85 26 55 6F EC 06 45 14 D6 F0 3E 89 00 87
 12 6E 9E 4F 13 5F 6D A2 15 65 C5 92 6B BA 48 91
 68 1A 08 09 6C 57 29 4E DC CA 56 BD 31 E6 B0 7D
 8D 37 6E 08 25 02 5A 13 00 BC 7A 12 1E 20 C2 07
 F2 A2 05 C7 10 FE 19 EA 63 91 D4 60 44 4A 60 CE
 EE 32 0B 72 91 9E 29 80 7D 54 86 6A 91 DB 89 8E
 DC BF D5 1D 9A D1 40 85 44 21 93 5E D1 14 D9 CA
 FF A3 BB C1 4B 6D 89 04 39 11 B1 B9 1F 0E CD 55
 17 1C EA C1 7E 11 D7 35 98 B2 C0 14 2C F9 B1 71
 29 78 0A A7 86 55 2A BD 1E B3 BD D6 37 89 13 51
 F5 C2 E1 48 E7 9D 70 5F BC 0C 9E 4B A2 DF D1 61
 26 37 3A 99 52 01 CC 87 A0 05 D6 6A 6B 2D 55 B1
 93 4D 45 4D F0 5B 60 1F 30 4B 3E D7 5E F1 38 32
 E2 0F A0 09 A6 9D 5B 20 80 04 DF 54 7A 44 15 33
 EC 26 B6 F3 51 9F 5C 5E 4D B8 E9 8E 4B DE 69 1F
 93 C5 5F 13 47 08 8C CE D8 99 E4 6D 91 F6 93 4F
 E7 65 5B 40 15 F9 04 32 1C 8C 73 3F 6D 8D C3 75
 BB A5 93 61 34 B0 68 FE 61 55 DE 9F 1E B9 DB C4
 FD AF 9A EA 40 C0 A3 4D 82 1A 41 26 87 2E 32 78
 0A A1 E5 F8 C2 94 14 3F 87 C4 45 5A A8 5E 57 6F
 22 9B 58 73 3B BD 4C 50 2A 97 D8 E8 6C 9A FF 6C
 D9 0A 02 8C 04 58 41 4C 6C 72 65 C3 84 2F EB 8D
 55 FC AB 76 04 07 8B E0 88 B6 34 4F 20 98 87 DB
 56 12 A5 68 F5 2D C0 52 8A 55 D6 13 E1 3A 53 88
* End 1969750481 2367012077